Version 4
SHEET 1 1488 1412
WIRE 384 400 320 400
WIRE 720 400 624 400
WIRE 896 400 800 400
WIRE -128 512 -240 512
WIRE 128 512 -128 512
WIRE 240 512 240 400
WIRE 240 512 208 512
WIRE 256 512 240 512
WIRE 384 528 384 400
WIRE 384 528 320 528
WIRE 464 528 384 528
WIRE 512 528 464 528
WIRE 624 528 624 400
WIRE 624 528 592 528
WIRE 736 528 624 528
WIRE -240 544 -240 512
WIRE 256 544 208 544
WIRE 896 544 896 400
WIRE 896 544 800 544
WIRE 1024 544 896 544
WIRE 1152 544 1104 544
WIRE 736 560 672 560
WIRE 1344 560 1216 560
WIRE 1152 576 1104 576
WIRE 672 608 672 560
WIRE 624 624 624 528
WIRE 624 624 592 624
WIRE 64 688 64 672
WIRE 176 688 64 688
WIRE 208 688 208 544
WIRE 208 688 176 688
WIRE 64 704 64 688
WIRE 960 720 960 704
WIRE 1104 720 1104 576
WIRE 1104 720 960 720
WIRE 960 736 960 720
WIRE -416 784 -416 640
WIRE -240 784 -240 624
WIRE -240 928 -240 896
WIRE 656 1008 592 1008
WIRE 400 1120 208 1120
WIRE 512 1120 512 1008
WIRE 512 1120 480 1120
WIRE 528 1120 512 1120
WIRE 656 1136 656 1008
WIRE 656 1136 592 1136
WIRE 768 1136 656 1136
WIRE 528 1152 480 1152
WIRE -240 1168 -240 1008
WIRE 304 1232 208 1232
WIRE 480 1232 480 1152
WIRE 480 1232 384 1232
FLAG 64 592 +5V
FLAG 64 784 0
FLAG 288 496 +5V
FLAG 288 560 0
FLAG -240 784 0
FLAG -416 784 0
FLAG -416 560 +5V
FLAG -128 512 V1
FLAG 464 528 -V1
FLAG 768 512 +5V
FLAG 768 576 0
FLAG 176 688 Vref
FLAG 672 608 Vref
FLAG -240 1168 0
FLAG -240 896 V2
FLAG 512 624 V2
FLAG 1344 560 Vout
FLAG 960 624 +5V
FLAG 960 816 0
FLAG 1184 592 +5V
FLAG 1184 528 0
FLAG 560 1104 +5V
FLAG 560 1168 0
FLAG 480 1312 0
FLAG 208 1120 V1
FLAG 208 1232 V2
FLAG 768 1136 Vdiff
SYMBOL res 224 496 R90
WINDOW 0 0 56 VBottom 2
WINDOW 3 32 56 VTop 2
SYMATTR InstName R1
SYMATTR Value 10k
SYMBOL res 224 416 R270
WINDOW 0 32 56 VTop 2
WINDOW 3 0 56 VBottom 2
SYMATTR InstName R2
SYMATTR Value 10k
SYMBOL res 48 576 R0
SYMATTR InstName R3
SYMATTR Value 100k
SYMBOL res 48 688 R0
SYMATTR InstName R4
SYMATTR Value 100k
SYMBOL Misc\\signal -240 528 R0
WINDOW 123 0 0 Left 0
WINDOW 39 0 0 Left 0
SYMATTR InstName V1
SYMATTR Value PULSE(2.55 2.45 0 0 0 0.01 0.02)
SYMBOL OpAmps\\opamp2 288 464 R0
SYMATTR InstName U1
SYMATTR Value LMV604
SYMBOL OpAmps\\opamp2 768 480 R0
SYMATTR InstName U2
SYMATTR Value LMV604
SYMBOL res 608 512 R90
WINDOW 0 0 56 VBottom 2
WINDOW 3 32 56 VTop 2
SYMATTR InstName R5
SYMATTR Value 10k
SYMBOL res 816 384 R90
WINDOW 0 0 56 VBottom 2
WINDOW 3 32 56 VTop 2
SYMATTR InstName R6
SYMATTR Value 100k
SYMBOL res 608 608 R90
WINDOW 0 0 56 VBottom 2
WINDOW 3 32 56 VTop 2
SYMATTR InstName R7
SYMATTR Value 10k
SYMBOL Misc\\signal -240 912 R0
WINDOW 123 0 0 Left 0
WINDOW 39 0 0 Left 0
SYMATTR InstName V2
SYMATTR Value PULSE(2.55 2.45 0.0025 0 0 0.01 0.02)
SYMBOL voltage -416 544 R0
WINDOW 123 0 0 Left 0
WINDOW 39 24 124 Left 2
SYMATTR InstName V3
SYMATTR Value 5
SYMATTR SpiceLine Rser=0
SYMBOL res 1120 528 R90
WINDOW 0 0 56 VBottom 2
WINDOW 3 32 56 VTop 2
SYMATTR InstName R8
SYMATTR Value 10k
SYMBOL res 944 608 R0
SYMATTR InstName R10
SYMATTR Value 100k
SYMBOL res 944 720 R0
SYMATTR InstName R11
SYMATTR Value 150k
SYMBOL OpAmps\\opamp2 1184 624 M180
SYMATTR InstName U3
SYMATTR Value LMV604
SYMBOL res 496 1104 R90
WINDOW 0 0 56 VBottom 2
WINDOW 3 32 56 VTop 2
SYMATTR InstName R9
SYMATTR Value 1k
SYMBOL res 496 1024 R270
WINDOW 0 32 56 VTop 2
WINDOW 3 0 56 VBottom 2
SYMATTR InstName R12
SYMATTR Value 100k
SYMBOL OpAmps\\opamp2 560 1072 R0
SYMATTR InstName U4
SYMATTR Value LMV604
SYMBOL res 496 1328 R180
WINDOW 0 36 76 Left 2
WINDOW 3 36 40 Left 2
SYMATTR InstName R13
SYMATTR Value 100k
SYMBOL res 400 1216 R90
WINDOW 0 0 56 VBottom 2
WINDOW 3 32 56 VTop 2
SYMATTR InstName R14
SYMATTR Value 1k
TEXT 104 72 Left 2 !.include D:\\LTSpice\\models\\LMV604.TXT
TEXT -224 224 Left 2 !.tran 0.2
